@<TRIPOS>MOLECULE
LIG
43 46 1
SMALL
USER_CHARGES
@<TRIPOS>ATOM
1	N1    -2.6310    45.1180    56.6240	N.3	1	LIG	0.0846
2	C1    -1.9550    45.6440    55.5340	C.2	1	LIG	0.0047
3	C2    -1.1560    44.8240    54.7830	C.2	1	LIG	0.0429
4	C3    -0.9560    43.3990    55.1430	C.3	1	LIG	0.1075
5	N2    -1.9620    42.9230    56.0450	N.3	1	LIG	0.0267
6	N3    -2.2300    41.6950    56.3540	N.2	1	LIG	-0.2606
7	C4    -3.2040    41.7450    57.2760	C.2	1	LIG	0.0756
8	N4    -3.5390    43.0150    57.5450	N.2	1	LIG	-0.1937
9	C5    -2.1050    47.0830    55.2250	C.3	1	LIG	-0.0380
10	C6    -2.7470    43.7510    56.7490	C.2	1	LIG	0.0136
11	C7    -3.1060    45.8770    57.6740	C.2	1	LIG	-0.0306
12	C8    -2.2100    46.7090    58.3850	C.2	1	LIG	-0.0120
13	C9    -2.6370    47.5260    59.4590	C.2	1	LIG	-0.0066
14	C10    -4.0170    47.5460    59.7730	C.2	1	LIG	-0.0257
15	C11    -4.9200    46.7120    59.0900	C.2	1	LIG	-0.0487
16	C12    -4.4630    45.8610    58.0680	C.2	1	LIG	-0.0438
17	C13    -1.6250    48.3150    60.2180	C.3	1	LIG	0.4161
18	F1    -0.4210    48.4730    59.5730	F	1	LIG	-0.1661
19	F2    -2.1160    49.5760    60.4540	F	1	LIG	-0.1661
20	F3    -1.3570    47.7160    61.4260	F	1	LIG	-0.1661
21	C14     0.4050    43.2160    55.7540	C.2	1	LIG	-0.0312
22	C15     1.3550    42.3470    55.1630	C.2	1	LIG	-0.0357
23	C16     2.6020    42.1070    55.7600	C.2	1	LIG	-0.0139
24	C17     2.9290    42.7240    56.9830	C.2	1	LIG	-0.0053
25	C18     2.0080    43.6170    57.5710	C.2	1	LIG	-0.0139
26	C19     0.7640    43.8650    56.9590	C.2	1	LIG	-0.0357
27	C20     4.0750    42.4720    57.5550	C.1	1	LIG	0.0596
28	N5     5.0860    42.2470    58.0490	N.1	1	LIG	-0.1841
29	C21    -0.5130    45.2240    53.7430	C.1	1	LIG	0.0704
30	N6     0.0780    45.5700    52.8210	N.1	1	LIG	-0.1834
31	H1    -1.0773    42.7996    54.2407	H	1	LIG	0.0637
32	H2    -3.6610    40.8725    57.7430	H	1	LIG	0.1079
33	H3    -2.1641    47.6499    56.1541	H	1	LIG	0.0280
34	H4    -1.2455    47.4219    54.6466	H	1	LIG	0.0280
35	H5    -3.0159    47.2374    54.6466	H	1	LIG	0.0280
36	H6    -1.1589    46.7209    58.0966	H	1	LIG	0.0635
37	H7    -4.3892    48.2125    60.5511	H	1	LIG	0.0628
38	H8    -5.9776    46.7252    59.3536	H	1	LIG	0.0622
39	H9    -5.1644    45.1853    57.5786	H	1	LIG	0.0629
40	H10     1.1198    41.8490    54.2224	H	1	LIG	0.0626
41	H11     3.3160    41.4419    55.2742	H	1	LIG	0.0636
42	H12     2.2595    44.1191    58.5052	H	1	LIG	0.0636
43	H13     0.0713    44.5671    57.4231	H	1	LIG	0.0626
@<TRIPOS>BOND
1	1	10	1
2	1	11	1
3	2	1	1
4	3	4	1
5	3	2	2
6	4	21	1
7	4	5	1
8	5	6	1
9	5	10	1
10	6	7	2
11	7	8	1
12	9	2	1
13	10	8	2
14	11	16	2
15	11	12	1
16	12	13	2
17	13	14	1
18	13	17	1
19	15	14	2
20	16	15	1
21	17	19	1
22	17	20	1
23	18	17	1
24	21	26	1
25	22	21	2
26	22	23	1
27	23	24	2
28	24	27	1
29	24	25	1
30	26	25	2
31	27	28	3
32	29	3	1
33	30	29	3
34	4	31	1
35	7	32	1
36	9	33	1
37	9	34	1
38	9	35	1
39	12	36	1
40	14	37	1
41	15	38	1
42	16	39	1
43	22	40	1
44	23	41	1
45	25	42	1
46	26	43	1
@<TRIPOS>SUBSTRUCTURE
1	LIG	1
