@<TRIPOS>MOLECULE
LIG
47 50 1
SMALL
USER_CHARGES
@<TRIPOS>ATOM
1	N1    -2.5410    45.0250    56.7660	N.3	1	LIG	0.0863
2	C1    -2.5950    43.6680    56.9700	C.2	1	LIG	0.0270
3	N2    -3.3160    42.9540    57.8470	N.2	1	LIG	-0.1435
4	C2    -2.9260    41.6830    57.6560	C.2	1	LIG	0.1377
5	N3    -2.0030    41.6130    56.6810	N.2	1	LIG	-0.2656
6	N4    -1.8120    42.8280    56.2770	N.3	1	LIG	0.0071
7	C3    -0.8860    43.2810    55.2820	C.3	1	LIG	0.1076
8	C4    -1.1250    44.6900    54.8810	C.2	1	LIG	0.0430
9	C5    -1.9000    45.5220    55.6430	C.2	1	LIG	0.0050
10	C6    -2.0690    46.9520    55.3120	C.3	1	LIG	-0.0380
11	C7    -3.0630    45.8140    57.7670	C.2	1	LIG	-0.0306
12	C8    -2.1910    46.5810    58.5750	C.2	1	LIG	-0.0119
13	C9    -2.6800    47.4600    59.5720	C.2	1	LIG	-0.0066
14	C10    -4.0810    47.5310    59.7650	C.2	1	LIG	-0.0256
15	C11    -4.9590    46.7500    58.9930	C.2	1	LIG	-0.0487
16	C12    -4.4530    45.8890    58.0040	C.2	1	LIG	-0.0437
17	C13    -1.7210    48.2800    60.3650	C.3	1	LIG	0.4161
18	F1    -0.4940    48.4580    59.7680	F	1	LIG	-0.1661
19	F2    -2.2440    49.5300    60.5830	F	1	LIG	-0.1661
20	F3    -1.4950    47.6820    61.5810	F	1	LIG	-0.1661
21	C14     0.5120    43.1370    55.8110	C.2	1	LIG	-0.0312
22	C15     0.9490    43.8410    56.9580	C.2	1	LIG	-0.0357
23	C16     2.2260    43.6050    57.5050	C.2	1	LIG	-0.0139
24	C17     3.0930    42.6630    56.9070	C.2	1	LIG	-0.0053
25	C18     2.6920    42.0030    55.7290	C.2	1	LIG	-0.0139
26	C19     1.4170    42.2380    55.1900	C.2	1	LIG	-0.0357
27	C20     4.2480    42.3810    57.4410	C.1	1	LIG	0.0596
28	N5     5.2560    42.1180    57.9250	N.1	1	LIG	-0.1841
29	O1    -3.3950    40.6110    58.3540	O.3	1	LIG	-0.2021
30	C21    -4.6790    40.1750    57.8760	C.3	1	LIG	0.0456
31	C22    -0.5390    45.0560    53.7940	C.1	1	LIG	0.0704
32	N6    -0.0210    45.3680    52.8170	N.1	1	LIG	-0.1834
33	H1    -1.0667    42.6512    54.4109	H	1	LIG	0.0637
34	H2    -2.1376    47.5323    56.2321	H	1	LIG	0.0280
35	H3    -1.2132    47.2938    54.7298	H	1	LIG	0.0280
36	H4    -2.9809    47.0849    54.7298	H	1	LIG	0.0280
37	H5    -1.1149    46.4924    58.4256	H	1	LIG	0.0635
38	H6    -4.4913    48.1994    60.5220	H	1	LIG	0.0628
39	H7    -6.0341    46.8121    59.1616	H	1	LIG	0.0622
40	H8    -5.1404    45.2778    57.4192	H	1	LIG	0.0629
41	H9     0.2932    44.5749    57.4264	H	1	LIG	0.0626
42	H10     2.5438    44.1522    58.3925	H	1	LIG	0.0636
43	H11     3.3702    41.3085    55.2332	H	1	LIG	0.0636
44	H12     1.1262    41.7161    54.2783	H	1	LIG	0.0626
45	H13    -5.3270    39.9550    58.7244	H	1	LIG	0.0536
46	H14    -5.1279    40.9625    57.2706	H	1	LIG	0.0536
47	H15    -4.5556    39.2770    57.2706	H	1	LIG	0.0536
@<TRIPOS>BOND
1	1	2	1
2	1	11	1
3	2	3	2
4	4	3	1
5	4	29	1
6	5	4	2
7	6	5	1
8	6	2	1
9	7	21	1
10	7	6	1
11	8	7	1
12	8	9	2
13	9	1	1
14	10	9	1
15	11	16	2
16	11	12	1
17	12	13	2
18	13	14	1
19	13	17	1
20	15	14	2
21	16	15	1
22	17	19	1
23	17	20	1
24	18	17	1
25	21	22	2
26	22	23	1
27	24	27	1
28	24	23	2
29	25	24	1
30	26	25	2
31	26	21	1
32	27	28	3
33	30	29	1
34	31	8	1
35	32	31	3
36	7	33	1
37	10	34	1
38	10	35	1
39	10	36	1
40	12	37	1
41	14	38	1
42	15	39	1
43	16	40	1
44	22	41	1
45	23	42	1
46	25	43	1
47	26	44	1
48	30	45	1
49	30	46	1
50	30	47	1
@<TRIPOS>SUBSTRUCTURE
1	LIG	1
