@<TRIPOS>MOLECULE
LIG
45 48 1
SMALL
USER_CHARGES
@<TRIPOS>ATOM
1	N1    -2.6140    44.9480    56.8810	N.3	1	LIG	0.0853
2	C1    -1.9870    45.3820    55.7280	C.2	1	LIG	0.0048
3	C2    -1.2180    44.5060    55.0120	C.2	1	LIG	0.0430
4	C3    -1.0030    43.1140    55.4760	C.3	1	LIG	0.1076
5	N2    -1.9300    42.7220    56.4960	N.3	1	LIG	-0.0268
6	N3    -2.1720    41.5260    56.9320	N.2	1	LIG	-0.3356
7	C4    -3.1100    41.6500    57.8860	C.2	1	LIG	0.0995
8	N4    -3.6420    40.6240    58.5720	N.3	1	LIG	-0.0714
9	H1    -4.3150    40.7870    59.2520	H	1	LIG	0.1274
10	H2    -3.3550    39.7160    58.3880	H	1	LIG	0.1274
11	N5    -3.4420    42.9400    58.0540	N.2	1	LIG	-0.1670
12	C5    -2.1720    46.7900    55.3180	C.3	1	LIG	-0.0380
13	C6    -2.6920    43.6040    57.1580	C.2	1	LIG	0.0149
14	C7    -3.1110    45.8020    57.8340	C.2	1	LIG	-0.0306
15	C8    -4.4990    45.9150    58.0680	C.2	1	LIG	-0.0438
16	C9    -4.9800    46.8210    59.0260	C.2	1	LIG	-0.0487
17	C10    -4.0830    47.6020    59.7770	C.2	1	LIG	-0.0256
18	C11    -2.6850    47.5000    59.5740	C.2	1	LIG	-0.0066
19	C12    -2.2190    46.5960    58.5900	C.2	1	LIG	-0.0119
20	C13    -1.6970    48.3040    60.3490	C.3	1	LIG	0.4161
21	F1    -1.4540    47.6980    61.5580	F	1	LIG	-0.1661
22	F2    -0.4810    48.4580    59.7260	F	1	LIG	-0.1661
23	F3    -2.1870    49.5680    60.5820	F	1	LIG	-0.1661
24	C14     0.3980    42.9460    55.9870	C.2	1	LIG	-0.0312
25	C15     1.2730    41.9800    55.4270	C.2	1	LIG	-0.0357
26	C16     2.5630    41.7730    55.9480	C.2	1	LIG	-0.0139
27	C17     3.0150    42.5380    57.0450	C.2	1	LIG	-0.0053
28	C18     2.1620    43.5190    57.5970	C.2	1	LIG	-0.0139
29	C19     0.8730    43.7230    57.0680	C.2	1	LIG	-0.0357
30	C20     4.2030    42.3420    57.5470	C.1	1	LIG	0.0596
31	N6     5.2490    42.1620    57.9860	N.1	1	LIG	-0.1841
32	C21    -0.6270    44.8240    53.9130	C.1	1	LIG	0.0704
33	N7    -0.0970    45.1090    52.9350	N.1	1	LIG	-0.1834
34	H3    -1.2079    42.4557    54.6318	H	1	LIG	0.0637
35	H4    -2.2546    47.4187    56.2046	H	1	LIG	0.0280
36	H5    -1.3165    47.1107    54.7235	H	1	LIG	0.0280
37	H6    -3.0813    46.8788    54.7235	H	1	LIG	0.0280
38	H7    -5.2024    45.3000    57.5066	H	1	LIG	0.0629
39	H8    -6.0536    46.9184    59.1873	H	1	LIG	0.0622
40	H9    -4.4750    48.2929    60.5234	H	1	LIG	0.0628
41	H10    -1.1475    46.5092    58.4101	H	1	LIG	0.0635
42	H11     0.9463    41.3825    54.5759	H	1	LIG	0.0626
43	H12     3.2123    41.0198    55.5017	H	1	LIG	0.0636
44	H13     2.5013    44.1236    58.4381	H	1	LIG	0.0636
45	H14     0.2343    44.4928    57.5011	H	1	LIG	0.0626
@<TRIPOS>BOND
1	1	13	1
2	1	14	1
3	2	1	1
4	3	4	1
5	3	2	2
6	4	24	1
7	4	5	1
8	5	6	1
9	5	13	1
10	6	7	2
11	7	11	1
12	7	8	1
13	8	9	1
14	10	8	1
15	12	2	1
16	13	11	2
17	14	15	2
18	14	19	1
19	15	16	1
20	16	17	2
21	18	17	1
22	18	20	1
23	19	18	2
24	20	23	1
25	20	21	1
26	22	20	1
27	24	29	2
28	25	26	2
29	25	24	1
30	26	27	1
31	27	30	1
32	27	28	2
33	29	28	1
34	30	31	3
35	32	3	1
36	33	32	3
37	4	34	1
38	12	35	1
39	12	36	1
40	12	37	1
41	15	38	1
42	16	39	1
43	17	40	1
44	19	41	1
45	25	42	1
46	26	43	1
47	28	44	1
48	29	45	1
@<TRIPOS>SUBSTRUCTURE
1	LIG	1
