@<TRIPOS>MOLECULE
LIG
48 51 1
SMALL
USER_CHARGES
@<TRIPOS>ATOM
1	N1    -2.4870    44.9920    56.8070	N.3	1	LIG	0.0853
2	C1    -2.5490    43.6530    57.1040	C.2	1	LIG	0.0152
3	N2    -3.2820    43.0060    58.0230	N.2	1	LIG	-0.1663
4	C2    -2.9250    41.7190    57.9160	C.2	1	LIG	0.1007
5	N3    -3.4350    40.7330    58.6930	N.3	1	LIG	-0.0635
6	H1    -4.0920    40.9700    59.3660	H	1	LIG	0.1309
7	C3    -3.0510    39.3710    58.5850	C.3	1	LIG	-0.0086
8	N4    -1.9980    41.5810    56.9500	N.2	1	LIG	-0.3332
9	N5    -1.7850    42.7610    56.4650	N.3	1	LIG	-0.0257
10	C4    -0.8610    43.1370    55.4350	C.3	1	LIG	0.1076
11	C5    -1.0690    44.5280    54.9570	C.2	1	LIG	0.0430
12	C6    -1.8450    45.4110    55.6550	C.2	1	LIG	0.0048
13	C7    -2.0270    46.8150    55.2240	C.3	1	LIG	-0.0380
14	C8    -3.0170    45.8430    57.7490	C.2	1	LIG	-0.0306
15	C9    -2.1540    46.6300    58.5500	C.2	1	LIG	-0.0119
16	C10    -2.6570    47.5080    59.5400	C.2	1	LIG	-0.0066
17	C11    -4.0610    47.5850    59.7090	C.2	1	LIG	-0.0256
18	C12    -4.9290    46.8140    58.9170	C.2	1	LIG	-0.0487
19	C13    -4.4100    45.9400    57.9490	C.2	1	LIG	-0.0438
20	C14    -1.7070    48.3130    60.3610	C.3	1	LIG	0.4161
21	F1    -1.4160    47.7660    61.5890	F	1	LIG	-0.1661
22	F2    -0.5100    48.4580    59.7010	F	1	LIG	-0.1661
23	F3    -2.2320    49.5610    60.5970	F	1	LIG	-0.1661
24	C15     0.5380    42.9730    55.9450	C.2	1	LIG	-0.0312
25	C16     1.0300    43.7490    57.0220	C.2	1	LIG	-0.0357
26	C17     2.3170    43.5230    57.5470	C.2	1	LIG	-0.0139
27	C18     3.1400    42.5140    57.0010	C.2	1	LIG	-0.0053
28	C19     2.6790    41.7630    55.9000	C.2	1	LIG	-0.0139
29	C20     1.3940    41.9940    55.3800	C.2	1	LIG	-0.0357
30	C21     4.3100    42.2740    57.5180	C.1	1	LIG	0.0596
31	N6     5.3410    42.0720    57.9830	N.1	1	LIG	-0.1841
32	C22    -0.4590    44.8270    53.8610	C.1	1	LIG	0.0704
33	N7     0.0950    45.0790    52.8860	N.1	1	LIG	-0.1834
34	H2    -2.9315    38.9470    59.5820	H	1	LIG	0.0396
35	H3    -3.8199    38.8184    58.0450	H	1	LIG	0.0396
36	H4    -2.1067    39.3015    58.0450	H	1	LIG	0.0396
37	H5    -1.0709    42.4682    54.6003	H	1	LIG	0.0637
38	H6    -2.1102    47.4565    56.1013	H	1	LIG	0.0280
39	H7    -1.1698    47.1257    54.6266	H	1	LIG	0.0280
40	H8    -2.9350    46.8969    54.6266	H	1	LIG	0.0280
41	H9    -1.0766    46.5582    58.4009	H	1	LIG	0.0635
42	H10    -4.4816    48.2504    60.4630	H	1	LIG	0.0628
43	H11    -6.0074    46.8941    59.0538	H	1	LIG	0.0622
44	H12    -5.0909    45.3347    57.3507	H	1	LIG	0.0629
45	H13     0.4080    44.5330    57.4539	H	1	LIG	0.0626
46	H14     2.6768    44.1302    58.3776	H	1	LIG	0.0636
47	H15     3.3172    41.0025    55.4500	H	1	LIG	0.0636
48	H16     1.0566    41.4057    54.5267	H	1	LIG	0.0626
@<TRIPOS>BOND
1	1	2	1
2	1	14	1
3	2	9	1
4	2	3	2
5	4	3	1
6	4	5	1
7	5	6	1
8	7	5	1
9	8	4	2
10	9	8	1
11	10	24	1
12	10	9	1
13	11	10	1
14	11	12	2
15	12	1	1
16	13	12	1
17	14	19	2
18	14	15	1
19	15	16	2
20	16	17	1
21	16	20	1
22	18	17	2
23	19	18	1
24	20	23	1
25	20	21	1
26	22	20	1
27	24	25	2
28	25	26	1
29	27	30	1
30	27	26	2
31	28	27	1
32	29	28	2
33	29	24	1
34	30	31	3
35	32	11	1
36	33	32	3
37	7	34	1
38	7	35	1
39	7	36	1
40	10	37	1
41	13	38	1
42	13	39	1
43	13	40	1
44	15	41	1
45	17	42	1
46	18	43	1
47	19	44	1
48	25	45	1
49	26	46	1
50	28	47	1
51	29	48	1
@<TRIPOS>SUBSTRUCTURE
1	LIG	1
