@<TRIPOS>MOLECULE
LIG
51 54 1
SMALL
USER_CHARGES
@<TRIPOS>ATOM
1	N1    -2.4900    44.9450    56.8150	N.3	1	LIG	0.0855
2	C1    -2.5470    43.6060    57.1080	C.2	1	LIG	0.0192
3	N2    -3.2980    42.9550    58.0100	N.2	1	LIG	-0.1614
4	C2    -2.9310    41.6700    57.9110	C.2	1	LIG	0.1114
5	N3    -3.4740    40.6970    58.6750	N.3	1	LIG	0.1423
6	H1    -4.2110    40.9310    59.2620	H	1	LIG	0.1535
7	N4    -1.9740    41.5400    56.9700	N.2	1	LIG	-0.2903
8	N5    -1.7580    42.7220    56.4840	N.3	1	LIG	0.0016
9	C3    -0.8300    43.1070    55.4610	C.3	1	LIG	0.1076
10	C4    -1.0560    44.4940    54.9750	C.2	1	LIG	0.0430
11	C5    -1.8430    45.3720    55.6700	C.2	1	LIG	0.0048
12	C6    -2.0240    46.7800    55.2540	C.3	1	LIG	-0.0380
13	C7    -3.0340    45.7930    57.7520	C.2	1	LIG	-0.0306
14	C8    -2.1760    46.5960    58.5360	C.2	1	LIG	-0.0119
15	C9    -2.6790    47.4610    59.5380	C.2	1	LIG	-0.0066
16	C10    -4.0820    47.5280    59.7160	C.2	1	LIG	-0.0256
17	C11    -4.9470    46.7410    58.9350	C.2	1	LIG	-0.0487
18	C12    -4.4260    45.8670    57.9640	C.2	1	LIG	-0.0437
19	C13    -1.7260    48.2610    60.3580	C.3	1	LIG	0.4161
20	F1    -1.5330    47.6460    61.5700	F	1	LIG	-0.1661
21	F2    -2.2200    49.5230    60.5790	F	1	LIG	-0.1661
22	F3    -0.4880    48.4380    59.7900	F	1	LIG	-0.1661
23	C14     0.5700    42.9450    55.9790	C.2	1	LIG	-0.0312
24	C15     1.4400    41.9780    55.4180	C.2	1	LIG	-0.0357
25	C16     2.7260    41.7610    55.9420	C.2	1	LIG	-0.0139
26	C17     3.1760    42.5200    57.0430	C.2	1	LIG	-0.0053
27	C18     2.3350    43.5130    57.5890	C.2	1	LIG	-0.0139
28	C19     1.0480    43.7240    57.0590	C.2	1	LIG	-0.0357
29	C20     4.3540    42.2990    57.5580	C.1	1	LIG	0.0596
30	N6     5.3950    42.1070    58.0010	N.1	1	LIG	-0.1841
31	S1    -2.9120    39.0790    58.6950	S	1	LIG	-0.0246
32	C21    -3.5870    38.2420    60.1730	C.3	1	LIG	0.0606
33	O1    -1.3090    39.0710    58.7650	O.2	1	LIG	-0.1882
34	O2    -3.4030    38.3140    57.3740	O.2	1	LIG	-0.1882
35	C22    -0.4600    44.8030    53.8780	C.1	1	LIG	0.0704
36	N7     0.0730    45.0770    52.8980	N.1	1	LIG	-0.1834
37	H2    -1.0256    42.4391    54.6221	H	1	LIG	0.0637
38	H3    -2.1053    47.4125    56.1380	H	1	LIG	0.0280
39	H4    -1.1673    47.0960    54.6587	H	1	LIG	0.0280
40	H5    -2.9327    46.8690    54.6587	H	1	LIG	0.0280
41	H6    -1.1008    46.5470    58.3638	H	1	LIG	0.0635
42	H7    -4.5032    48.1966    60.4668	H	1	LIG	0.0628
43	H8    -6.0248    46.8087    59.0828	H	1	LIG	0.0622
44	H9    -5.1016    45.2465    57.3753	H	1	LIG	0.0629
45	H10     1.1121    41.3869    54.5629	H	1	LIG	0.0626
46	H11     3.3729    41.0058    55.4955	H	1	LIG	0.0636
47	H12     2.6815    44.1206    58.4250	H	1	LIG	0.0636
48	H13     0.4144    44.4993    57.4897	H	1	LIG	0.0626
49	H14    -3.5257    37.1620    60.0387	H	1	LIG	0.0440
50	H15    -3.0094    38.5324    61.0506	H	1	LIG	0.0440
51	H16    -4.6285    38.5324    60.3111	H	1	LIG	0.0440
@<TRIPOS>BOND
1	1	2	1
2	1	13	1
3	2	8	1
4	2	3	2
5	4	3	1
6	4	5	1
7	5	31	1
8	5	6	1
9	7	4	2
10	8	7	1
11	9	23	1
12	9	8	1
13	10	9	1
14	10	11	2
15	11	1	1
16	12	11	1
17	13	18	2
18	13	14	1
19	14	15	2
20	15	16	1
21	15	19	1
22	17	16	2
23	18	17	1
24	19	21	1
25	19	20	1
26	22	19	1
27	23	28	2
28	24	25	2
29	24	23	1
30	25	26	1
31	26	29	1
32	26	27	2
33	28	27	1
34	29	30	3
35	31	33	2
36	31	32	1
37	34	31	2
38	35	10	1
39	36	35	3
40	9	37	1
41	12	38	1
42	12	39	1
43	12	40	1
44	14	41	1
45	16	42	1
46	17	43	1
47	18	44	1
48	24	45	1
49	25	46	1
50	27	47	1
51	28	48	1
52	32	49	1
53	32	50	1
54	32	51	1
@<TRIPOS>SUBSTRUCTURE
1	LIG	1
