@<TRIPOS>MOLECULE
LIG
51 54 1
SMALL
USER_CHARGES
@<TRIPOS>ATOM
1	N1    -2.6020    45.2240    56.4960	N.3	1	LIG	0.0865
2	C1    -2.6800    43.8600    56.6110	C.2	1	LIG	0.0344
3	N2    -3.4220    43.1070    57.4350	N.2	1	LIG	-0.1446
4	C2    -3.0580    41.8470    57.1660	C.2	1	LIG	0.1479
5	N3    -2.1220    41.8190    56.2040	N.2	1	LIG	-0.1952
6	N4    -1.9030    43.0530    55.8780	N.3	1	LIG	0.0564
7	C3    -0.9570    43.5500    54.9260	C.3	1	LIG	0.1076
8	C4    -1.1440    44.9930    54.6290	C.2	1	LIG	0.0430
9	C5    -1.9110    45.7870    55.4380	C.2	1	LIG	0.0049
10	C6    -2.0250    47.2450    55.2350	C.3	1	LIG	-0.0380
11	C7    -3.1700    45.9440    57.5210	C.2	1	LIG	-0.0306
12	C8    -2.3380    46.6620    58.4090	C.2	1	LIG	-0.0119
13	C9    -2.8670    47.4060    59.4900	C.2	1	LIG	-0.0066
14	C10    -4.2730    47.4000    59.6690	C.2	1	LIG	-0.0256
15	C11    -5.1130    46.6910    58.7910	C.2	1	LIG	-0.0487
16	C12    -4.5650    45.9600    57.7240	C.2	1	LIG	-0.0437
17	C13    -1.9380    48.1630    60.3780	C.3	1	LIG	0.4161
18	F1    -1.8070    47.5170    61.5860	F	1	LIG	-0.1661
19	F2    -2.4260    49.4250    60.6160	F	1	LIG	-0.1661
20	F3    -0.6690    48.3210    59.8720	F	1	LIG	-0.1661
21	C14     0.4220    43.3200    55.4670	C.2	1	LIG	-0.0312
22	C15     0.8530    43.9150    56.6750	C.2	1	LIG	-0.0357
23	C16     2.1200    43.6170    57.2110	C.2	1	LIG	-0.0139
24	C17     2.9780    42.7080    56.5530	C.2	1	LIG	-0.0053
25	C18     2.5770    42.1470    55.3240	C.2	1	LIG	-0.0139
26	C19     1.3180    42.4560    54.7870	C.2	1	LIG	-0.0357
27	C20     4.1280    42.3770    57.0670	C.1	1	LIG	0.0596
28	N5     5.1470    42.0960    57.5160	N.1	1	LIG	-0.1841
29	S1    -3.7230    40.4580    58.0220	S	1	LIG	-0.0557
30	O1    -2.7820    40.0360    59.2500	O.2	1	LIG	-0.1789
31	O2    -3.8830    39.2250    57.0080	O.2	1	LIG	-0.1789
32	N6    -5.3150    40.9230    58.6300	N.3	1	LIG	0.0138
33	H1    -5.6790    41.6240    57.9790	H	1	LIG	0.1440
34	C21    -6.2690    39.8050    58.6400	C.3	1	LIG	0.0021
35	C22    -0.5160    45.4240    53.5870	C.1	1	LIG	0.0704
36	N7     0.0550    45.7930    52.6610	N.1	1	LIG	-0.1834
37	H2    -1.1464    42.9986    54.0050	H	1	LIG	0.0637
38	H3    -2.0641    47.7447    56.2029	H	1	LIG	0.0280
39	H4    -1.1603    47.6027    54.6761	H	1	LIG	0.0280
40	H5    -2.9348    47.4640    54.6761	H	1	LIG	0.0280
41	H6    -1.2590    46.6414    58.2560	H	1	LIG	0.0635
42	H7    -4.7169    47.9513    60.4979	H	1	LIG	0.0628
43	H8    -6.1929    46.7081    58.9380	H	1	LIG	0.0622
44	H9    -5.2219    45.4055    57.0539	H	1	LIG	0.0629
45	H10     0.2001    44.6124    57.1998	H	1	LIG	0.0626
46	H11     2.4379    44.0920    58.1391	H	1	LIG	0.0636
47	H12     3.2430    41.4717    54.7869	H	1	LIG	0.0636
48	H13     1.0325    42.0195    53.8299	H	1	LIG	0.0626
49	H14    -6.5003    39.5339    59.6701	H	1	LIG	0.0406
50	H15    -7.1841    40.1037    58.1287	H	1	LIG	0.0406
51	H16    -5.8301    38.9483    58.1287	H	1	LIG	0.0406
@<TRIPOS>BOND
1	1	2	1
2	1	11	1
3	2	6	1
4	2	3	2
5	4	3	1
6	4	29	1
7	5	4	2
8	6	5	1
9	7	21	1
10	7	6	1
11	8	7	1
12	8	9	2
13	9	1	1
14	10	9	1
15	11	16	2
16	11	12	1
17	12	13	2
18	13	14	1
19	13	17	1
20	15	14	2
21	16	15	1
22	17	19	1
23	17	18	1
24	20	17	1
25	21	22	2
26	22	23	1
27	24	27	1
28	24	23	2
29	25	24	1
30	26	25	2
31	26	21	1
32	27	28	3
33	29	32	1
34	29	30	2
35	31	29	2
36	32	34	1
37	33	32	1
38	35	8	1
39	36	35	3
40	7	37	1
41	10	38	1
42	10	39	1
43	10	40	1
44	12	41	1
45	14	42	1
46	15	43	1
47	16	44	1
48	22	45	1
49	23	46	1
50	25	47	1
51	26	48	1
52	34	49	1
53	34	50	1
54	34	51	1
@<TRIPOS>SUBSTRUCTURE
1	LIG	1
