@<TRIPOS>MOLECULE
LIG
51 54 1
SMALL
USER_CHARGES
@<TRIPOS>ATOM
1	N1    -2.5690    44.9320    56.8260	N.3	1	LIG	0.0857
2	C1    -2.6740    43.5960    57.1180	C.2	1	LIG	0.0228
3	N2    -3.4020    42.9830    58.0600	N.2	1	LIG	-0.1626
4	C2    -3.0660    41.6910    57.9670	C.2	1	LIG	0.1158
5	N3    -3.5640    40.7860    58.8350	N.3	1	LIG	-0.0524
6	H1    -4.2790    41.0900    59.4160	H	1	LIG	0.1428
7	C3    -3.1330    39.5210    59.0300	C.2	1	LIG	0.1409
8	O1    -2.2260    38.9920    58.3430	O.2	1	LIG	-0.2301
9	N4    -2.1700    41.5110    56.9790	N.2	1	LIG	-0.2510
10	N5    -1.9420    42.6810    56.4740	N.3	1	LIG	0.0231
11	C4    -1.0130    43.0370    55.4430	C.3	1	LIG	0.1076
12	C5    -1.2040    44.4230    54.9520	C.2	1	LIG	0.0430
13	C6    -1.9280    45.3350    55.6710	C.2	1	LIG	0.0049
14	C7    -2.0240    46.7540    55.2760	C.3	1	LIG	-0.0380
15	C8    -3.0570    45.7880    57.7850	C.2	1	LIG	-0.0306
16	C9    -2.1660    46.6040    58.5220	C.2	1	LIG	-0.0119
17	C10    -2.6270    47.4780    59.5360	C.2	1	LIG	-0.0066
18	C11    -4.0220    47.5350    59.7790	C.2	1	LIG	-0.0256
19	C12    -4.9170    46.7260    59.0560	C.2	1	LIG	-0.0487
20	C13    -4.4350    45.8460    58.0740	C.2	1	LIG	-0.0437
21	C14    -1.6420    48.2920    60.3060	C.3	1	LIG	0.4161
22	F1    -1.3920    47.7030    61.5220	F	1	LIG	-0.1661
23	F2    -2.1400    49.5540    60.5250	F	1	LIG	-0.1661
24	F3    -0.4250    48.4530    59.6870	F	1	LIG	-0.1661
25	C15     0.3790    42.8970    55.9800	C.2	1	LIG	-0.0312
26	C16     1.2370    41.8790    55.4930	C.2	1	LIG	-0.0357
27	C17     2.5310    41.7090    56.0070	C.2	1	LIG	-0.0139
28	C18     2.9940    42.5520    57.0370	C.2	1	LIG	-0.0053
29	C19     2.1530    43.5720    57.5320	C.2	1	LIG	-0.0139
30	C20     0.8590    43.7440    57.0040	C.2	1	LIG	-0.0357
31	C21     4.1860    42.3660    57.5290	C.1	1	LIG	0.0596
32	N6     5.2310    42.1970    57.9760	N.1	1	LIG	-0.1841
33	O2    -3.7310    38.8690    60.0650	O.3	1	LIG	-0.1888
34	C22    -5.0420    38.3030    60.1210	C.3	1	LIG	0.0467
35	C23    -0.6130    44.7020    53.8420	C.1	1	LIG	0.0704
36	N7    -0.0740    44.9460    52.8570	N.1	1	LIG	-0.1834
37	H2    -1.2213    42.3555    54.6183	H	1	LIG	0.0637
38	H3    -2.0662    47.3777    56.1690	H	1	LIG	0.0280
39	H4    -1.1504    47.0262    54.6837	H	1	LIG	0.0280
40	H5    -2.9263    46.9060    54.6837	H	1	LIG	0.0280
41	H6    -1.0991    46.5582    58.3034	H	1	LIG	0.0635
42	H7    -4.4140    48.2139    60.5363	H	1	LIG	0.0628
43	H8    -5.9868    46.7812    59.2572	H	1	LIG	0.0622
44	H9    -5.1328    45.2058    57.5343	H	1	LIG	0.0629
45	H10     0.8932    41.2104    54.7038	H	1	LIG	0.0626
46	H11     3.1742    40.9249    55.6076	H	1	LIG	0.0636
47	H12     2.5047    44.2304    58.3263	H	1	LIG	0.0636
48	H13     0.2231    44.5400    57.3915	H	1	LIG	0.0626
49	H14    -5.3383    38.1751    61.1621	H	1	LIG	0.0536
50	H15    -5.7466    38.9682    59.6218	H	1	LIG	0.0536
51	H16    -5.0410    37.3340    59.6218	H	1	LIG	0.0536
@<TRIPOS>BOND
1	1	2	1
2	1	15	1
3	2	10	1
4	2	3	2
5	4	3	1
6	4	5	1
7	5	7	1
8	5	6	1
9	7	33	1
10	8	7	2
11	9	4	2
12	10	9	1
13	11	25	1
14	11	10	1
15	12	11	1
16	12	13	2
17	13	1	1
18	14	13	1
19	15	20	2
20	15	16	1
21	16	17	2
22	17	18	1
23	17	21	1
24	19	18	2
25	20	19	1
26	21	23	1
27	21	22	1
28	24	21	1
29	25	30	1
30	26	25	2
31	26	27	1
32	27	28	2
33	28	31	1
34	28	29	1
35	30	29	2
36	31	32	3
37	33	34	1
38	35	12	1
39	36	35	3
40	11	37	1
41	14	38	1
42	14	39	1
43	14	40	1
44	16	41	1
45	18	42	1
46	19	43	1
47	20	44	1
48	26	45	1
49	27	46	1
50	29	47	1
51	30	48	1
52	34	49	1
53	34	50	1
54	34	51	1
@<TRIPOS>SUBSTRUCTURE
1	LIG	1
