@<TRIPOS>MOLECULE
LIG
54 58 1
SMALL
USER_CHARGES
@<TRIPOS>ATOM
1	N1    -2.6710    44.8260    56.8820	N.3	1	LIG	0.0857
2	C1    -2.7160    43.4870    57.1860	C.2	1	LIG	0.0222
3	N2    -3.4490    42.8170    58.0910	N.2	1	LIG	-0.1632
4	C2    -3.0390    41.5400    58.0010	C.2	1	LIG	0.1143
5	N3    -3.5190    40.5340    58.7740	N.3	1	LIG	-0.0793
6	H1    -4.3330    40.7110    59.2680	H	1	LIG	0.1403
7	C3    -2.9370    39.3150    58.9480	C.2	1	LIG	0.1441
8	O1    -1.8520    38.9920    58.4060	O.2	1	LIG	-0.2722
9	N4    -2.0880    41.4350    57.0570	N.2	1	LIG	-0.2574
10	N5    -1.9080    42.6170    56.5700	N.3	1	LIG	0.0192
11	C4    -0.9790    42.9970    55.5530	C.3	1	LIG	0.1076
12	C5    -1.2220    44.3700    55.0510	C.2	1	LIG	0.0430
13	C6    -2.0370    45.2400    55.7230	C.2	1	LIG	0.0049
14	C7    -2.2590    46.6260    55.2610	C.3	1	LIG	-0.0380
15	C8    -3.1500    45.6880    57.8450	C.2	1	LIG	-0.0306
16	C9    -2.2380    46.5030    58.5550	C.2	1	LIG	-0.0119
17	C10    -2.6720    47.4390    59.5230	C.2	1	LIG	-0.0066
18	C11    -4.0630    47.5370    59.7750	C.2	1	LIG	-0.0256
19	C12    -4.9820    46.7320    59.0770	C.2	1	LIG	-0.0487
20	C13    -4.5260    45.7950    58.1330	C.2	1	LIG	-0.0437
21	C14    -1.6670    48.2820    60.2330	C.3	1	LIG	0.4161
22	F1    -1.3550    47.7260    61.4500	F	1	LIG	-0.1661
23	F2    -2.1720    49.5410    60.4480	F	1	LIG	-0.1661
24	F3    -0.4790    48.4350    59.5570	F	1	LIG	-0.1661
25	C15     0.4130    42.8490    56.0890	C.2	1	LIG	-0.0312
26	C16     1.2900    41.8680    55.5650	C.2	1	LIG	-0.0357
27	C17     2.5870    41.6990    56.0820	C.2	1	LIG	-0.0139
28	C18     3.0420    42.5250    57.1310	C.2	1	LIG	-0.0053
29	C19     2.1810    43.5130    57.6590	C.2	1	LIG	-0.0139
30	C20     0.8840    43.6740    57.1360	C.2	1	LIG	-0.0357
31	C21     4.2440    42.3710    57.6060	C.1	1	LIG	0.0596
32	N6     5.3060    42.2350    58.0190	N.1	1	LIG	-0.1841
33	C22    -3.5850    38.3750    59.8730	C.3	1	LIG	0.0332
34	C23    -5.1140    38.4940    59.9740	C.3	1	LIG	-0.0414
35	C24    -4.4860    37.2400    59.3550	C.3	1	LIG	-0.0414
36	C25    -0.6100    44.6670    53.9560	C.1	1	LIG	0.0704
37	N7    -0.0530    44.9270    52.9850	N.1	1	LIG	-0.1834
38	H2    -1.1545    42.3229    54.7146	H	1	LIG	0.0637
39	H3    -2.3644    47.2840    56.1236	H	1	LIG	0.0280
40	H4    -1.4094    46.9489    54.6593	H	1	LIG	0.0280
41	H5    -3.1670    46.6674    54.6593	H	1	LIG	0.0280
42	H6    -1.1716    46.4071    58.3506	H	1	LIG	0.0635
43	H7    -4.4323    48.2435    60.5183	H	1	LIG	0.0628
44	H8    -6.0502    46.8345    59.2681	H	1	LIG	0.0622
45	H9    -5.2413    45.1497    57.6230	H	1	LIG	0.0629
46	H10     0.9596    41.2292    54.7460	H	1	LIG	0.0626
47	H11     3.2389    40.9286    55.6701	H	1	LIG	0.0636
48	H12     2.5189    44.1538    58.4734	H	1	LIG	0.0636
49	H13     0.2358    44.4478    57.5472	H	1	LIG	0.0626
50	H14    -2.7148    38.4121    60.5283	H	1	LIG	0.0397
51	H15    -5.5321    38.3679    60.9727	H	1	LIG	0.0274
52	H16    -5.5810    39.1835    59.2707	H	1	LIG	0.0274
53	H17    -4.5664    37.1583    58.2710	H	1	LIG	0.0274
54	H18    -4.5175    36.3427    59.9730	H	1	LIG	0.0274
@<TRIPOS>BOND
1	1	2	1
2	1	15	1
3	2	10	1
4	2	3	2
5	4	3	1
6	4	5	1
7	5	7	1
8	5	6	1
9	7	33	1
10	8	7	2
11	9	4	2
12	10	9	1
13	11	25	1
14	11	10	1
15	12	11	1
16	12	13	2
17	13	1	1
18	14	13	1
19	15	20	2
20	15	16	1
21	16	17	2
22	17	18	1
23	17	21	1
24	19	18	2
25	20	19	1
26	21	23	1
27	21	22	1
28	24	21	1
29	25	30	2
30	26	27	2
31	26	25	1
32	27	28	1
33	28	31	1
34	28	29	2
35	30	29	1
36	31	32	3
37	33	34	1
38	35	33	1
39	35	34	1
40	36	12	1
41	37	36	3
42	11	38	1
43	14	39	1
44	14	40	1
45	14	41	1
46	16	42	1
47	18	43	1
48	19	44	1
49	20	45	1
50	26	46	1
51	27	47	1
52	29	48	1
53	30	49	1
54	33	50	1
55	34	51	1
56	34	52	1
57	35	53	1
58	35	54	1
@<TRIPOS>SUBSTRUCTURE
1	LIG	1
