@<TRIPOS>MOLECULE
LIG
52 55 1
SMALL
USER_CHARGES
@<TRIPOS>ATOM
1	N1    -2.8990    44.7900    56.9580	N.3	1	LIG	0.0857
2	C1    -2.9350    43.4560    57.2770	C.2	1	LIG	0.0225
3	N2    -3.6350    42.8050    58.2180	N.2	1	LIG	-0.1629
4	C2    -3.2340    41.5260    58.1360	C.2	1	LIG	0.1151
5	N3    -3.7130    40.5600    58.9600	N.3	1	LIG	-0.0785
6	H1    -4.4930    40.7970    59.4870	H	1	LIG	0.1417
7	C3    -3.2030    39.3140    59.1500	C.2	1	LIG	0.0511
8	N4    -3.8690    38.5230    60.0340	N.3	1	LIG	-0.0586
9	H2    -4.6640    38.8940    60.4530	H	1	LIG	0.1320
10	C4    -3.4990    37.2010    60.4230	C.3	1	LIG	-0.0076
11	O1    -2.1660    38.9180    58.5650	O.2	1	LIG	-0.2722
12	N5    -2.3150    41.4000    57.1600	N.2	1	LIG	-0.2545
13	N6    -2.1420    42.5790    56.6480	N.3	1	LIG	0.0209
14	C5    -1.2280    42.9650    55.6080	C.3	1	LIG	0.1076
15	C6    -1.4920    44.3360    55.1000	C.2	1	LIG	0.0430
16	C7    -2.3180    45.1960    55.7700	C.2	1	LIG	0.0049
17	C8    -2.6100    46.5590    55.2760	C.3	1	LIG	-0.0380
18	C9    -3.3060    45.6740    57.9310	C.2	1	LIG	-0.0306
19	C10    -2.3450    46.4920    58.5710	C.2	1	LIG	-0.0119
20	C11    -2.7170    47.4920    59.4990	C.2	1	LIG	-0.0066
21	C12    -4.0940    47.6580    59.7830	C.2	1	LIG	-0.0256
22	C13    -5.0570    46.8200    59.1890	C.2	1	LIG	-0.0487
23	C14    -4.6650    45.8220    58.2790	C.2	1	LIG	-0.0437
24	C15    -1.6550    48.3200    60.1410	C.3	1	LIG	0.4161
25	F1    -1.2520    47.7490    61.3270	F	1	LIG	-0.1661
26	F2    -2.1500    49.5750    60.4090	F	1	LIG	-0.1661
27	F3    -0.5270    48.4800    59.3720	F	1	LIG	-0.1661
28	C16     0.1720    42.8390    56.1260	C.2	1	LIG	-0.0312
29	C17     1.0330    41.8260    55.6380	C.2	1	LIG	-0.0357
30	C18     2.3440    41.6860    56.1260	C.2	1	LIG	-0.0139
31	C19     2.8200    42.5610    57.1240	C.2	1	LIG	-0.0053
32	C20     1.9780    43.5850    57.6110	C.2	1	LIG	-0.0139
33	C21     0.6670    43.7200    57.1170	C.2	1	LIG	-0.0357
34	C22     4.0200    42.4100    57.6050	C.1	1	LIG	0.0596
35	N7     5.0770    42.2620    58.0280	N.1	1	LIG	-0.1841
36	C23    -0.8930    44.6590    54.0080	C.1	1	LIG	0.0704
37	N8    -0.3440    44.9360    53.0370	N.1	1	LIG	-0.1834
38	H3    -3.4803    37.1342    61.5108	H	1	LIG	0.0397
39	H4    -4.2241    36.4896    60.0277	H	1	LIG	0.0397
40	H5    -2.5100    36.9693    60.0277	H	1	LIG	0.0397
41	H6    -1.4040    42.2839    54.7754	H	1	LIG	0.0637
42	H7    -2.7536    47.2295    56.1233	H	1	LIG	0.0280
43	H8    -1.7755    46.9125    54.6703	H	1	LIG	0.0280
44	H9    -3.5160    46.5396    54.6703	H	1	LIG	0.0280
45	H10    -1.2889    46.3478    58.3428	H	1	LIG	0.0635
46	H11    -4.4171    48.4416    60.4683	H	1	LIG	0.0628
47	H12    -6.1116    46.9445    59.4349	H	1	LIG	0.0622
48	H13    -5.4153    45.1625    57.8429	H	1	LIG	0.0629
49	H14     0.6788    41.1388    54.8697	H	1	LIG	0.0626
50	H15     2.9896    40.9012    55.7317	H	1	LIG	0.0636
51	H16     2.3420    44.2749    58.3723	H	1	LIG	0.0636
52	H17     0.0293    44.5140    57.5054	H	1	LIG	0.0626
@<TRIPOS>BOND
1	1	2	1
2	1	18	1
3	2	13	1
4	2	3	2
5	4	3	1
6	4	5	1
7	5	7	1
8	5	6	1
9	7	8	1
10	8	10	1
11	8	9	1
12	11	7	2
13	12	4	2
14	13	12	1
15	14	28	1
16	14	13	1
17	15	14	1
18	15	16	2
19	16	1	1
20	17	16	1
21	18	23	2
22	18	19	1
23	19	20	2
24	20	21	1
25	20	24	1
26	22	21	2
27	23	22	1
28	24	26	1
29	24	25	1
30	27	24	1
31	28	33	1
32	29	28	2
33	29	30	1
34	30	31	2
35	31	34	1
36	31	32	1
37	33	32	2
38	34	35	3
39	36	15	1
40	37	36	3
41	10	38	1
42	10	39	1
43	10	40	1
44	14	41	1
45	17	42	1
46	17	43	1
47	17	44	1
48	19	45	1
49	21	46	1
50	22	47	1
51	23	48	1
52	29	49	1
53	30	50	1
54	32	51	1
55	33	52	1
@<TRIPOS>SUBSTRUCTURE
1	LIG	1
