@<TRIPOS>MOLECULE
LIG
63 67 1
SMALL
USER_CHARGES
@<TRIPOS>ATOM
1	N1    -2.5110    44.9100    56.7910	N.3	1	LIG	0.0857
2	C1    -2.5320    43.5550    57.0270	C.2	1	LIG	0.0222
3	N2    -3.2570    42.8080    57.8820	N.2	1	LIG	-0.1632
4	C2    -2.8490    41.5390    57.6830	C.2	1	LIG	0.1143
5	N3    -3.3460    40.4360    58.3120	N.3	1	LIG	-0.0793
6	H1    -4.1230    40.5600    58.8820	H	1	LIG	0.1403
7	C3    -2.8460    39.1650    58.1960	C.2	1	LIG	0.1441
8	O1    -1.8140    38.9150    57.5250	O.2	1	LIG	-0.2722
9	N4    -1.8950    41.5250    56.7360	N.2	1	LIG	-0.2574
10	N5    -1.7140    42.7410    56.3520	N.3	1	LIG	0.0192
11	C4    -0.7850    43.1920    55.3650	C.3	1	LIG	0.1076
12	C5    -1.0380    44.5910    54.9490	C.2	1	LIG	0.0430
13	C6    -1.8690    45.4060    55.6690	C.2	1	LIG	0.0049
14	C7    -2.0880    46.8210    55.3040	C.3	1	LIG	-0.0380
15	C8    -3.0450    45.7210    57.7640	C.2	1	LIG	-0.0306
16	C9    -2.1790    46.5200    58.5430	C.2	1	LIG	-0.0119
17	C10    -2.6760    47.4270    59.5100	C.2	1	LIG	-0.0066
18	C11    -4.0790    47.5060    59.6890	C.2	1	LIG	-0.0256
19	C12    -4.9510    46.6950    58.9380	C.2	1	LIG	-0.0487
20	C13    -4.4380    45.8030    57.9810	C.2	1	LIG	-0.0437
21	C14    -1.7180    48.2590    60.2950	C.3	1	LIG	0.4161
22	F1    -1.4930    47.6900    61.5250	F	1	LIG	-0.1661
23	F2    -2.2340    49.5150    60.4950	F	1	LIG	-0.1661
24	F3    -0.4890    48.4320    59.7030	F	1	LIG	-0.1661
25	C15    -3.5200    38.0150    58.8520	C.3	1	LIG	0.0331
26	C16    -2.5140    37.0450    59.5430	C.3	1	LIG	-0.0421
27	C17    -3.2520    35.8540    60.2090	C.3	1	LIG	-0.0525
28	C18    -4.3730    36.3260    61.1750	C.3	1	LIG	-0.0532
29	C19    -5.3610    37.3070    60.4930	C.3	1	LIG	-0.0525
30	C20    -4.6200    38.5050    59.8410	C.3	1	LIG	-0.0421
31	C21     0.6090    43.0170    55.8950	C.2	1	LIG	-0.0312
32	C22     1.4990    42.0850    55.3060	C.2	1	LIG	-0.0357
33	C23     2.7780    41.8540    55.8450	C.2	1	LIG	-0.0139
34	C24     3.2020    42.5650    56.9860	C.2	1	LIG	-0.0053
35	C25     2.3480    43.5350    57.5510	C.2	1	LIG	-0.0139
36	C26     1.0690    43.7610    57.0080	C.2	1	LIG	-0.0357
37	C27     4.3710    42.3250    57.5130	C.1	1	LIG	0.0596
38	N6     5.4000    42.1130    57.9770	N.1	1	LIG	-0.1841
39	C28    -0.4180    44.9790    53.8890	C.1	1	LIG	0.0704
40	N7     0.1350    45.3190    52.9410	N.1	1	LIG	-0.1834
41	H2    -0.9547    42.5733    54.4838	H	1	LIG	0.0637
42	H3    -2.1807    47.4198    56.2101	H	1	LIG	0.0280
43	H4    -1.2429    47.1796    54.7163	H	1	LIG	0.0280
44	H5    -3.0019    46.9074    54.7163	H	1	LIG	0.0280
45	H6    -1.1025    46.4347    58.3945	H	1	LIG	0.0635
46	H7    -4.4947    48.2027    60.4170	H	1	LIG	0.0628
47	H8    -6.0273    46.7579    59.0981	H	1	LIG	0.0622
48	H9    -5.1200    45.1752    57.4075	H	1	LIG	0.0629
49	H10    -3.9868    37.4757    58.0278	H	1	LIG	0.0397
50	H11    -1.8993    36.6197    58.7497	H	1	LIG	0.0274
51	H12    -2.0474    37.6074    60.3518	H	1	LIG	0.0274
52	H13    -3.7511    35.3167    59.4026	H	1	LIG	0.0267
53	H14    -2.5120    35.3452    60.8267	H	1	LIG	0.0267
54	H15    -4.9526    35.4376    61.4259	H	1	LIG	0.0266
55	H16    -3.8772    36.8937    61.9624	H	1	LIG	0.0266
56	H17    -5.8268    36.7540    59.6773	H	1	LIG	0.0267
57	H18    -5.9766    37.7243    61.2899	H	1	LIG	0.0267
58	H19    -4.1018    39.0216    60.6488	H	1	LIG	0.0274
59	H20    -5.3608    39.0347    59.2421	H	1	LIG	0.0274
60	H21     1.1926    41.5329    54.4175	H	1	LIG	0.0626
61	H22     3.4402    41.1244    55.3788	H	1	LIG	0.0636
62	H23     2.6787    44.1140    58.4133	H	1	LIG	0.0636
63	H24     0.4275    44.5208    57.4545	H	1	LIG	0.0626
@<TRIPOS>BOND
1	1	2	1
2	1	15	1
3	2	10	1
4	2	3	2
5	4	3	1
6	4	5	1
7	5	6	1
8	7	5	1
9	7	25	1
10	8	7	2
11	9	4	2
12	10	9	1
13	11	31	1
14	11	10	1
15	12	11	1
16	12	13	2
17	13	1	1
18	14	13	1
19	15	20	2
20	15	16	1
21	16	17	2
22	17	18	1
23	17	21	1
24	19	18	2
25	20	19	1
26	21	23	1
27	21	22	1
28	24	21	1
29	25	26	1
30	25	30	1
31	26	27	1
32	27	28	1
33	29	28	1
34	30	29	1
35	31	36	2
36	32	33	2
37	32	31	1
38	33	34	1
39	34	37	1
40	34	35	2
41	36	35	1
42	37	38	3
43	39	12	1
44	40	39	3
45	11	41	1
46	14	42	1
47	14	43	1
48	14	44	1
49	16	45	1
50	18	46	1
51	19	47	1
52	20	48	1
53	25	49	1
54	26	50	1
55	26	51	1
56	27	52	1
57	27	53	1
58	28	54	1
59	28	55	1
60	29	56	1
61	29	57	1
62	30	58	1
63	30	59	1
64	32	60	1
65	33	61	1
66	35	62	1
67	36	63	1
@<TRIPOS>SUBSTRUCTURE
1	LIG	1
